174

RU   1.870821   1.412552   3.920922
CL   3.507978   1.606818   5.676670
P   0.667681   3.223840   5.010828
C   3.033591   2.334484   2.836277
CL  -0.051230   0.917464   2.561344
P   2.633247  -0.855401   3.491502
C   2.945601   2.979482   1.518908
H   5.251287  10.812297  -0.431163
C   1.831874   2.927875   0.651020
C   1.866142   3.544113  -0.592950
C   2.996948   4.260843  -1.027115
C   4.098119   4.334263  -0.166126
C   4.075946   3.698721   1.074551
C  -0.669847   4.017685   3.951931
C  -1.888514   4.636024   4.667375
C  -2.952381   5.078763   3.647357
C  -2.383743   6.048367   2.605363
C  -1.152497   5.450430   1.914530
C  -0.089000   5.020976   2.937239
C   1.756592   4.538872   5.788120
C   1.006953   5.646509   6.555462
C   1.991183   6.513948   7.359817
C   3.086184   7.108555   6.467309
C   3.805978   6.013122   5.671700
C   2.820473   5.154123   4.862636
C  -0.292429   2.564072   6.484544
C  -1.210647   1.390880   6.087679
C  -2.112825   0.976088   7.259551
C  -1.294996   0.632056   8.510115
C  -0.344512   1.774751   8.886063
C   0.558587   2.185493   7.711226
C   2.227690  -1.542694   1.792521
C   2.698465  -0.669412   0.616125
C   2.104033  -1.177570  -0.707334
C   2.447620  -2.651372  -0.957942
C   2.021747  -3.526436   0.226665
C   2.612180  -3.016416   1.552753
C   4.452056  -1.104779   3.892900
C   5.391270  -0.482393   2.841810
C   6.839316  -0.447413   3.355425
C   7.328675  -1.848591   3.739759
C   6.378799  -2.507280   4.746321
C   4.925411  -2.531511   4.239504
C   1.766240  -2.073541   4.629975
C   1.939093  -1.711345   6.117181
C   1.366249  -2.813583   7.020672
C  -0.103325  -3.107350   6.697194
C  -0.294638  -3.421973   5.209430
C   0.280337  -2.318511   4.306136
H   4.046900   2.460711   3.265709
H   0.945326   2.379174   0.972831
H   0.993501   3.471627  -1.243968
H   4.994631   4.886590  -0.447487
H   4.950810   3.758545   1.722669
H  -1.022457   3.144022   3.375352
H  -1.578319   5.505412   5.266956
H  -2.344336   3.919845   5.362884
H  -3.799501   5.538773   4.176246
H  -3.349702   4.187029   3.136158
H  -3.154266   6.305922   1.864721
H  -2.099510   6.991773   3.101595
H  -1.455049   4.572326   1.321384
H  -0.720002   6.175322   1.207765
H   0.778561   4.587215   2.423308
H   0.271483   5.915773   3.468909
H   2.315187   3.924017   6.513559
H   2.456336   5.894985   8.144284
H   0.253666   5.222901   7.233374
H   0.464425   6.288275   5.843272
H   1.440900   7.312603   7.877839
H   3.804948   7.676423   7.075378
H   2.631831   7.830791   5.767387
H   4.552699   6.457614   4.996700
H   4.361189   5.359809   6.363754
H   3.365003   4.354580   4.345571
H   2.343871   5.779776   4.092849
H  -0.937127   3.406906   6.784847
H  -1.818406   1.637580   5.206606
H  -0.587295   0.532987   5.788258
H  -2.804791   1.802397   7.491403
H  -2.739067   0.122826   6.961197
H  -0.704915  -0.279163   8.317636
H  -1.962815   0.397471   9.350955
H   0.279674   1.488024   9.744480
H  -0.936404   2.647491   9.209125
H   1.195097   3.024148   8.019967
H   1.243384   1.365969   7.452156
H   1.127072  -1.465794   1.800884
H   3.796352  -0.684705   0.546954
H   2.399384   0.370609   0.786311
H   1.009129  -1.056130  -0.675826
H   2.464171  -0.554868  -1.540514
H   3.535735  -2.751474  -1.109337
H   1.970773  -3.005796  -1.883291
H   2.327122  -4.570092   0.063177
H   0.922006  -3.530216   0.300387
H   4.541644  -0.486246   4.803039
H   3.708779  -3.109873   1.513781
H   2.270150  -3.658818   2.375557
H   5.058708   0.531815   2.581291
H   5.357499  -1.079048   1.916785
H   6.890968   0.215682   4.233504
H   7.496212  -0.009495   2.588813
H   8.346423  -1.799968   4.152706
H   7.388646  -2.473999   2.833292
H   6.415560  -1.953059   5.697810
H   6.706632  -3.533170   4.968638
H   4.289520  -2.985749   5.010006
H   4.863130  -3.180633   3.353031
H   2.298006  -3.024166   4.455089
H   1.420283  -0.761387   6.320839
H   2.993307  -1.527928   6.362753
H   1.959469  -3.734048   6.889345
H   1.478317  -2.522287   8.074947
H  -0.472332  -3.939321   7.313973
H  -0.715415  -2.229484   6.962223
H   0.203743  -4.377298   4.972529
H  -1.360520  -3.564835   4.980860
H   0.147874  -2.606943   3.255470
H  -0.289057  -1.386662   4.436646
C   2.918017   4.905437  -2.400548
P   4.347641   5.775983  -3.140653
H   8.707261   2.125268  -4.212260
H   1.858943   7.022794  -8.204639
C   5.821669   4.650424  -3.227381
C   8.141869   4.219304  -4.151633
C   6.889747   5.107481  -4.248141
C   5.464132   3.158155  -3.414700
C   6.730818   2.290310  -3.327316
C   7.802048   2.735779  -4.328540
H   6.260514   4.755572  -2.220071
H   8.618982   4.374041  -3.170323
H   8.870659   4.543684  -4.906486
H   6.480073   5.043548  -5.267504
H   7.169567   6.156304  -4.083270
H   4.988719   3.004699  -4.394767
H   4.744989   2.837946  -2.650271
H   6.457608   1.239745  -3.494302
H   7.135427   2.347350  -2.304020
H   7.441171   2.561868  -5.355434
C   3.812789   6.310662  -4.828982
C   2.282524   7.784214  -6.216373
C   2.602117   7.272871  -4.802085
C   3.542010   5.134146  -5.794547
C   3.213052   5.652614  -7.204564
C   2.034797   6.631321  -7.194077
H   4.687083   6.869538  -5.206465
H   3.122460   8.401349  -6.575162
H   1.407746   8.446698  -6.169877
H   1.721356   6.743954  -4.405122
H   2.788615   8.123721  -4.134611
H   2.692907   4.538496  -5.423027
H   4.405940   4.459982  -5.845387
H   2.999860   4.797896  -7.860644
H   4.103832   6.150181  -7.621317
H   1.115877   6.096105  -6.904369
C   4.811880   7.251256  -2.108869
C   4.137849   8.949594  -0.355276
C   3.640147   7.830516  -1.284278
C   5.536668   8.363138  -2.903260
C   6.020455   9.474120  -1.957036
C   4.870647  10.052222  -1.126297
H   5.538581   6.828214  -1.393136
H   4.813173   8.515353   0.399940
H   3.283229   9.364139   0.195691
H   2.871898   8.236031  -1.960035
H   3.163785   7.041877  -0.688205
H   4.848385   8.798241  -3.644079
H   6.389752   7.958946  -3.463742
H   6.506693  10.261962  -2.547902
H   6.793302   9.066616  -1.285286
H   4.161297  10.569436  -1.792832
H   2.103016   5.647348  -2.416802
H   2.636462   4.146594  -3.147522
