60

C         -3.43160        0.34759        0.36275
C         -3.18000        1.18019       -0.73365
C         -2.91700        0.36819       -1.84295
C         -3.00580       -0.96681       -1.43165
C         -3.32390       -0.97991       -0.06845
C         -1.94590        0.74339       -2.77345
C         -1.23420        1.93539       -2.59565
C         -1.49540        2.74769       -1.49045
C         -2.46900        2.36919       -0.55875
C         -2.01240        2.72899        0.71405
C         -2.26500        1.89969        1.80875
C         -2.97550        0.70659        1.63285
C         -2.41390       -0.25931        2.47505
C         -2.30810       -1.58371        2.04635
C         -2.76370       -1.94331        0.77275
C         -1.88330       -2.89801        0.25185
C         -1.56450       -2.88691       -1.10735
C         -2.12640       -1.92011       -1.94925
C         -1.15430       -1.54051       -2.88145
C         -1.06250       -0.20961       -3.29365
C          0.08690        1.72099       -3.00485
C         -0.43750        3.34139       -0.79195
C         -0.75650        3.32989        0.57135
C         -1.26290        1.66879        2.75835
C         -1.35440        0.33379        3.17085
C         -1.14360       -2.31451        2.31015
C         -0.88050       -3.12751        1.20085
C         -0.24390       -3.10181       -1.51865
C          0.01040       -2.26971       -2.61575
C          0.19260        0.39329       -3.43645
C          3.32560        0.98179        0.06925
C          3.00860        0.96979        1.43235
C          2.91670       -0.36481        1.84405
C          3.17680       -1.17781        0.73465
C          3.42960       -0.34591       -0.36235
C          1.94630       -0.74831        2.77185
C          1.06350        0.20539        3.29135
C          1.15370        1.53769        2.88315
C          2.12700        1.91949        1.95255
C          1.56470        2.88539        1.11045
C          1.88240        2.89919       -0.24915
C          2.76410        1.94549       -0.77095
C          2.30820        1.58579       -2.04395
C          2.41340        0.26229       -2.47575
C          2.97480       -0.70391       -1.63305
C          2.26560       -1.89701       -1.81025
C          2.01230       -2.72841       -0.71745
C          2.46830       -2.36781        0.55575
C          1.49630       -2.74891        1.48745
C          1.23390       -1.94021        2.59495
C         -0.19270       -0.39441        3.43595
C         -0.00980        2.26829        2.61505
C          0.24370        3.10179        1.51885
C          0.88050        3.12609       -1.20025
C          1.14320        2.31419       -2.31025
C          1.35480       -0.33411       -3.17085
C          1.26300       -1.66951       -2.75975
C          0.75670       -3.32981       -0.57145
C          0.43720       -3.34301        0.79175
C         -0.08660       -1.72221        3.00465
